@<TRIPOS>MOLECULE
ben/3ptb_hetb.pdb
 17 17 0 0 0
SMALL
GASTEIGER

@<TRIPOS>ATOM
      1  C1        -1.8530   14.3110   16.6580 C.ar    1  BEN1        0.0647
      2  C2        -2.1070   15.6530   16.7580 C.ar    1  BEN1       -0.0469
      3  C3        -1.7740   16.3410   17.9320 C.ar    1  BEN1       -0.0610
      4  C4        -1.1750   15.6620   19.0050 C.ar    1  BEN1       -0.0617
      5  C5        -0.9140   14.2950   18.8850 C.ar    1  BEN1       -0.0610
      6  C6        -1.2570   13.6340   17.7080 C.ar    1  BEN1       -0.0469
      7  C         -2.1930   13.6270   15.4960 C.2     1  BEN1        0.3081
      8  N1        -2.7970   14.2350   14.4910 N.2     1  BEN1       -0.0994
      9  N2        -1.7620   12.3910   15.3090 N.pl3   1  BEN1       -0.2466
     10 H          -2.5430   16.1566   15.9698 H       1  BEN1        0.0626
     11 H          -1.9698   17.3514   18.0085 H       1  BEN1        0.0618
     12 H          -0.9306   16.1665   19.8715 H       1  BEN1        0.0618
     13 H          -0.4710   13.7794   19.6615 H       1  BEN1        0.0618
     14 H          -1.0639   12.6243   17.6174 H       1  BEN1        0.0626
     15 H          -3.0283   13.7305   13.6778 H       1  BEN1        0.3633
     16 H          -2.0017   11.9052   14.4870 H       1  BEN1        0.2884
     17 H          -1.2014   11.9566   15.9918 H       1  BEN1        0.2884
@<TRIPOS>BOND
     1     8     7    2
     2     9     7    1
     3     7     1    1
     4     1     2   ar
     5     1     6   ar
     6     2     3   ar
     7     6     5   ar
     8     3     4   ar
     9     5     4   ar
    10     2    10    1
    11     3    11    1
    12     4    12    1
    13     5    13    1
    14     6    14    1
    15     8    15    1
    16     9    16    1
    17     9    17    1
